1659721523.14731s 1 https://api.dandiarchive.org/api/zarr/6eb45019-066f-45d3-bec5-7e235b4214ef.zarr/0/0/0/6/4/88
1659721523.139342s 1 https://dandiarchive.s3.amazonaws.com/zarr/6eb45019-066f-45d3-bec5-7e235b4214ef/0/0/0/6/4/88?versionId=.T4.FcARe5TMyEI1x.MT3DlQ7vWi5hMW
